%chk=butadiene-scanMM.chk
%mem=2gb
%nproc=8

# opt=(modredundant,nomicro,CalcAll) external="gromacs_link.sh -p joyce.new.top"

Title Card Required

0 1
 C                 -2.72138215    0.44276457    0.00000000
 H                 -2.18821840   -0.48494035    0.00000000
 H                 -3.79138215    0.44276457    0.00000000
 C                 -2.04610784    1.61774187    0.00000000
 H                 -2.57927159    2.54544679    0.00000000
 C                 -0.50610784    1.61774187    0.00000000
 H                  0.02705590    0.69003695    0.00000000
 C                  0.17613556    2.78868635   -0.00000000
 H                 -0.35150691    3.71954264    0.00000000
 H                  1.24611667    2.78232905   -0.00000000

D 1 4 6 8 S 36 10.0

